@<TRIPOS>MOLECULE
MOL
   39    41     1     0     0
SMALL
No Charge or Current Charge


@<TRIPOS>ATOM
      1 C1          -1.9600    21.5500   -27.3300 ca         1 MOL       0.000000
      2 C2          -1.2900    22.4100   -28.2000 ca         1 MOL       0.000000
      3 C3          -1.9600    22.9500   -29.2900 ca         1 MOL       0.000000
      4 C4          -3.3000    22.6200   -29.5400 ca         1 MOL       0.000000
      5 C5          -3.9700    21.7600   -28.6500 ca         1 MOL       0.000000
      6 C6          -3.2900    21.2300   -27.5600 ca         1 MOL       0.000000
      7 Cl1         -5.6400    21.3500   -28.9200 cl         1 MOL       0.000000
      8 C7          -4.0400    23.1500   -30.7100 c          1 MOL       0.000000
      9 O1          -4.2300    22.4200   -31.6700 o          1 MOL       0.000000
     10 N1          -4.5100    24.4100   -30.6500 n          1 MOL       0.000000
     11 C8          -5.2900    25.1100   -31.5800 ca         1 MOL       0.000000
     12 C9          -5.9600    24.5500   -32.6800 ca         1 MOL       0.000000
     13 C10         -6.7800    25.3600   -33.4600 ca         1 MOL       0.000000
     14 N2          -6.9200    26.6500   -33.1800 nb         1 MOL       0.000000
     15 C11         -6.3000    27.2300   -32.1600 ca         1 MOL       0.000000
     16 C12         -5.5100    26.4600   -31.3100 ca         1 MOL       0.000000
     17 N3          -6.5400    28.5800   -31.8800 n          1 MOL       0.000000
     18 C13         -5.7100    29.4500   -31.2300 c          1 MOL       0.000000
     19 O2          -4.6200    29.1200   -30.8100 o          1 MOL       0.000000
     20 Cl2         -1.1100    24.0500   -30.3300 cl         1 MOL       0.000000
     21 H1          -1.4400    21.1300   -26.4800 ha         1 MOL       0.000000
     22 H2          -0.2600    22.6600   -28.0200 ha         1 MOL       0.000000
     23 H3          -3.8100    20.5600   -26.8900 ha         1 MOL       0.000000
     24 H4          -4.3200    24.9800   -29.8400 hn         1 MOL       0.000000
     25 H5          -5.8400    23.5000   -32.9100 ha         1 MOL       0.000000
     26 H6          -7.3100    24.9400   -34.3000 h4         1 MOL       0.000000
     27 H7          -5.0600    26.9100   -30.4300 ha         1 MOL       0.000000
     28 H8          -7.4000    29.0100   -32.1800 hn         1 MOL       0.000000
     29 C14         -7.0300    33.5300   -30.6200 ca         1 MOL       0.000000
     30 C15         -7.2500    32.9000   -31.8500 ca         1 MOL       0.000000
     31 C16         -6.8200    31.5800   -32.0500 ca         1 MOL       0.000000
     32 C17         -6.1800    30.8800   -31.0200 ca         1 MOL       0.000000
     33 C18         -5.9600    31.5100   -29.7800 ca         1 MOL       0.000000
     34 C19         -6.3800    32.8400   -29.5800 ca         1 MOL       0.000000
     35 H9          -7.3600    34.5700   -30.4600 ha         1 MOL       0.000000
     36 H10         -7.7500    33.4500   -32.6700 ha         1 MOL       0.000000
     37 H11         -6.9900    31.0800   -33.0200 ha         1 MOL       0.000000
     38 H12         -5.4500    30.9700   -28.9700 ha         1 MOL       0.000000
     39 H13         -6.2100    33.3300   -28.6100 ha         1 MOL       0.000000
@<TRIPOS>BOND
     1    13    26 1   
     2    13    14 ar  
     3    12    13 ar  
     4    14    15 ar  
     5    31    37 1   
     6    12    25 1   
     7    11    12 ar  
     8    30    36 1   
     9    17    28 1   
    10    15    17 1   
    11    15    16 ar  
    12    30    31 ar  
    13    31    32 ar  
    14    17    18 1   
    15    29    30 ar  
    16     8     9 2   
    17    11    16 ar  
    18    10    11 1   
    19    16    27 1   
    20    18    32 1   
    21    18    19 2   
    22    32    33 ar  
    23     8    10 1   
    24     4     8 1   
    25    10    24 1   
    26    29    35 1   
    27    29    34 ar  
    28     3    20 1   
    29    33    34 ar  
    30    33    38 1   
    31    34    39 1   
    32     3     4 ar  
    33     4     5 ar  
    34     2     3 ar  
    35     5     7 1   
    36     5     6 ar  
    37     2    22 1   
    38     1     2 ar  
    39     1     6 ar  
    40     6    23 1   
    41     1    21 1   
@<TRIPOS>SUBSTRUCTURE
     1 MOL         1 TEMP              0 ****  ****    0 ROOT
