@<TRIPOS>MOLECULE
MOL
   39    41     1     0     0
SMALL
No Charge or Current Charge


@<TRIPOS>ATOM
      1 C1          -1.9600    21.5500   -27.3300 ca         1 MOL       0.000000
      2 C2          -1.2900    22.4100   -28.2000 ca         1 MOL       0.000000
      3 C3          -1.9600    22.9500   -29.2900 ca         1 MOL       0.000000
      4 C4          -3.3000    22.6200   -29.5400 ca         1 MOL       0.000000
      5 C5          -3.9700    21.7600   -28.6500 ca         1 MOL       0.000000
      6 C6          -3.2900    21.2300   -27.5600 ca         1 MOL       0.000000
      7 Cl1         -5.6400    21.3500   -28.9200 cl         1 MOL       0.000000
      8 C7          -4.0400    23.1500   -30.7100 c          1 MOL       0.000000
      9 O1          -4.2300    22.4200   -31.6700 o          1 MOL       0.000000
     10 N1          -4.5100    24.4100   -30.6500 n          1 MOL       0.000000
     11 C8          -5.2900    25.1100   -31.5800 ca         1 MOL       0.000000
     12 C9          -5.9600    24.5500   -32.6800 ca         1 MOL       0.000000
     13 C10         -6.7800    25.3600   -33.4600 ca         1 MOL       0.000000
     14 N2          -6.9200    26.6500   -33.1800 nb         1 MOL       0.000000
     15 C11         -6.3000    27.2300   -32.1600 ca         1 MOL       0.000000
     16 C12         -5.5100    26.4600   -31.3100 ca         1 MOL       0.000000
     17 N3          -6.5400    28.5800   -31.8800 n          1 MOL       0.000000
     18 C13         -5.7100    29.4500   -31.2300 c          1 MOL       0.000000
     19 O2          -4.6200    29.1200   -30.8100 o          1 MOL       0.000000
     20 C14         -6.2300    30.8500   -31.0300 cx         1 MOL       0.000000
     21 C15         -5.5800    31.7500   -29.9800 cx         1 MOL       0.000000
     22 C16         -5.3600    32.0200   -31.4700 cx         1 MOL       0.000000
     23 C17         -4.0200    31.7000   -32.0500 c3         1 MOL       0.000000
     24 Cl2         -1.1100    24.0500   -30.3300 cl         1 MOL       0.000000
     25 H1          -7.3100    30.9400   -31.1600 hc         1 MOL       0.000000
     26 H2          -5.8600    32.9000   -31.8800 hc         1 MOL       0.000000
     27 H3          -1.4400    21.1300   -26.4800 ha         1 MOL       0.000000
     28 H4          -0.2600    22.6600   -28.0200 ha         1 MOL       0.000000
     29 H5          -3.8100    20.5600   -26.8900 ha         1 MOL       0.000000
     30 H6          -4.3200    24.9800   -29.8400 hn         1 MOL       0.000000
     31 H7          -5.8400    23.5000   -32.9100 ha         1 MOL       0.000000
     32 H8          -7.3100    24.9400   -34.3000 h4         1 MOL       0.000000
     33 H9          -5.0600    26.9100   -30.4300 ha         1 MOL       0.000000
     34 H10         -7.4000    29.0100   -32.1800 hn         1 MOL       0.000000
     35 H11         -6.3500    32.2000   -29.3600 hc         1 MOL       0.000000
     36 H12         -4.9200    31.1500   -29.3500 hc         1 MOL       0.000000
     37 H13         -3.5100    32.6200   -32.3100 hc         1 MOL       0.000000
     38 H14         -3.4300    31.1600   -31.3100 hc         1 MOL       0.000000
     39 H15         -4.1500    31.0900   -32.9400 hc         1 MOL       0.000000
@<TRIPOS>BOND
     1    13    32 1   
     2    13    14 ar  
     3    12    13 ar  
     4    14    15 ar  
     5    23    39 1   
     6    12    31 1   
     7    11    12 ar  
     8    23    37 1   
     9    17    34 1   
    10    15    17 1   
    11    15    16 ar  
    12    22    23 1   
    13    23    38 1   
    14    17    18 1   
    15    22    26 1   
    16     8     9 2   
    17    11    16 ar  
    18    10    11 1   
    19    20    22 1   
    20    21    22 1   
    21    16    33 1   
    22    18    20 1   
    23    18    19 2   
    24    20    25 1   
    25    20    21 1   
    26     8    10 1   
    27     4     8 1   
    28    10    30 1   
    29     3    24 1   
    30    21    35 1   
    31    21    36 1   
    32     3     4 ar  
    33     4     5 ar  
    34     2     3 ar  
    35     5     7 1   
    36     5     6 ar  
    37     2    28 1   
    38     1     2 ar  
    39     1     6 ar  
    40     6    29 1   
    41     1    27 1   
@<TRIPOS>SUBSTRUCTURE
     1 MOL         1 TEMP              0 ****  ****    0 ROOT
