@<TRIPOS>MOLECULE
MOL
   39    41     1     0     0
SMALL
No Charge or Current Charge


@<TRIPOS>ATOM
      1 C1          -1.9600    21.5500   -27.3300 ca         1 MOL       0.000000
      2 C2          -1.2900    22.4100   -28.2000 ca         1 MOL       0.000000
      3 C3          -1.9600    22.9500   -29.2900 ca         1 MOL       0.000000
      4 C4          -3.3000    22.6200   -29.5400 ca         1 MOL       0.000000
      5 C5          -3.9700    21.7600   -28.6500 ca         1 MOL       0.000000
      6 C6          -3.2900    21.2300   -27.5600 ca         1 MOL       0.000000
      7 Cl1         -5.6400    21.3500   -28.9200 cl         1 MOL       0.000000
      8 C7          -4.0400    23.1500   -30.7100 c          1 MOL       0.000000
      9 O1          -4.2300    22.4200   -31.6700 o          1 MOL       0.000000
     10 N1          -4.5100    24.4100   -30.6500 n          1 MOL       0.000000
     11 C8          -5.2900    25.1100   -31.5800 ca         1 MOL       0.000000
     12 C9          -5.9600    24.5500   -32.6800 ca         1 MOL       0.000000
     13 C10         -6.7800    25.3600   -33.4600 ca         1 MOL       0.000000
     14 N2          -6.9200    26.6500   -33.1800 nb         1 MOL       0.000000
     15 C11         -6.3000    27.2300   -32.1600 ca         1 MOL       0.000000
     16 C12         -5.5100    26.4600   -31.3100 ca         1 MOL       0.000000
     17 N3          -6.5400    28.5800   -31.8800 n          1 MOL       0.000000
     18 C13         -5.7100    29.4500   -31.2300 c          1 MOL       0.000000
     19 O2          -4.6200    29.1200   -30.8100 o          1 MOL       0.000000
     20 Cl2         -1.1100    24.0500   -30.3300 cl         1 MOL       0.000000
     21 H1          -1.4400    21.1300   -26.4800 ha         1 MOL       0.000000
     22 H2          -0.2600    22.6600   -28.0200 ha         1 MOL       0.000000
     23 H3          -3.8100    20.5600   -26.8900 ha         1 MOL       0.000000
     24 H4          -4.3200    24.9800   -29.8400 hn         1 MOL       0.000000
     25 H5          -5.8400    23.5000   -32.9100 ha         1 MOL       0.000000
     26 H6          -7.3100    24.9400   -34.3000 h4         1 MOL       0.000000
     27 H7          -5.0600    26.9100   -30.4300 ha         1 MOL       0.000000
     28 H8          -7.4000    29.0100   -32.1800 hn         1 MOL       0.000000
     29 C14         -6.2100    30.8600   -31.0300 cy         1 MOL       0.000000
     30 C15         -5.6700    31.4800   -29.7300 cy         1 MOL       0.000000
     31 C16         -4.5300    32.0900   -30.5500 cy         1 MOL       0.000000
     32 C17         -5.3800    31.8800   -31.8100 cy         1 MOL       0.000000
     33 H9          -6.3600    32.2500   -29.3200 hc         1 MOL       0.000000
     34 H10         -5.3500    30.7400   -28.9600 hc         1 MOL       0.000000
     35 H11         -4.3000    33.1500   -30.3100 hc         1 MOL       0.000000
     36 H12         -3.6100    31.4500   -30.5500 hc         1 MOL       0.000000
     37 H13         -5.9700    32.7900   -32.0700 hc         1 MOL       0.000000
     38 H14         -4.8300    31.4700   -32.6900 hc         1 MOL       0.000000
     39 H15         -7.2800    30.9700   -31.1500 hc         1 MOL       0.000000
@<TRIPOS>BOND
     1    13    26 1   
     2    13    14 ar  
     3    12    13 ar  
     4    14    15 ar  
     5    12    25 1   
     6    32    38 1   
     7    11    12 ar  
     8    17    28 1   
     9    15    17 1   
    10    15    16 ar  
    11    32    37 1   
    12    17    18 1   
    13    29    32 1   
    14    31    32 1   
    15     8     9 2   
    16    11    16 ar  
    17    10    11 1   
    18    16    27 1   
    19    18    29 1   
    20    18    19 2   
    21    29    39 1   
    22    29    30 1   
    23     8    10 1   
    24     4     8 1   
    25    10    24 1   
    26    31    36 1   
    27    31    35 1   
    28    30    31 1   
    29     3    20 1   
    30    30    33 1   
    31    30    34 1   
    32     3     4 ar  
    33     4     5 ar  
    34     2     3 ar  
    35     5     7 1   
    36     5     6 ar  
    37     2    22 1   
    38     1     2 ar  
    39     1     6 ar  
    40     6    23 1   
    41     1    21 1   
@<TRIPOS>SUBSTRUCTURE
     1 MOL         1 TEMP              0 ****  ****    0 ROOT
