@<TRIPOS>MOLECULE
MOL
   33    34     1     0     0
SMALL
No Charge or Current Charge


@<TRIPOS>ATOM
      1 C1          -1.9600    21.5500   -27.3300 ca         1 MOL       0.000000
      2 C2          -1.2900    22.4100   -28.2000 ca         1 MOL       0.000000
      3 C3          -1.9600    22.9500   -29.2900 ca         1 MOL       0.000000
      4 C4          -3.3000    22.6200   -29.5400 ca         1 MOL       0.000000
      5 C5          -3.9700    21.7600   -28.6500 ca         1 MOL       0.000000
      6 C6          -3.2900    21.2300   -27.5600 ca         1 MOL       0.000000
      7 Cl1         -5.6400    21.3500   -28.9200 cl         1 MOL       0.000000
      8 C7          -4.0400    23.1500   -30.7100 c          1 MOL       0.000000
      9 O1          -4.2300    22.4200   -31.6700 o          1 MOL       0.000000
     10 N1          -4.5100    24.4100   -30.6500 n          1 MOL       0.000000
     11 C8          -5.2900    25.1100   -31.5800 ca         1 MOL       0.000000
     12 C9          -5.9600    24.5500   -32.6800 ca         1 MOL       0.000000
     13 C10         -6.7800    25.3600   -33.4600 ca         1 MOL       0.000000
     14 N2          -6.9200    26.6500   -33.1800 nb         1 MOL       0.000000
     15 C11         -6.3000    27.2300   -32.1600 ca         1 MOL       0.000000
     16 C12         -5.5100    26.4600   -31.3100 ca         1 MOL       0.000000
     17 N3          -6.5400    28.5800   -31.8800 n          1 MOL       0.000000
     18 C13         -5.7100    29.4500   -31.2300 c          1 MOL       0.000000
     19 O2          -4.6200    29.1200   -30.8100 o          1 MOL       0.000000
     20 Cl2         -1.1100    24.0500   -30.3300 cl         1 MOL       0.000000
     21 H1          -1.4400    21.1300   -26.4800 ha         1 MOL       0.000000
     22 H2          -0.2600    22.6600   -28.0200 ha         1 MOL       0.000000
     23 H3          -3.8100    20.5600   -26.8900 ha         1 MOL       0.000000
     24 H4          -4.3200    24.9800   -29.8400 hn         1 MOL       0.000000
     25 H5          -5.8400    23.5000   -32.9100 ha         1 MOL       0.000000
     26 H6          -7.3100    24.9400   -34.3000 h4         1 MOL       0.000000
     27 H7          -5.0600    26.9100   -30.4300 ha         1 MOL       0.000000
     28 H8          -7.4000    29.0100   -32.1800 hn         1 MOL       0.000000
     29 C14         -5.1900    31.8500   -30.6800 c3         1 MOL       0.000000
     30 H9          -5.5900    32.8600   -30.8200 h1         1 MOL       0.000000
     31 H10         -4.9100    31.7200   -29.6300 h1         1 MOL       0.000000
     32 O3          -6.2500    30.8500   -31.0300 os         1 MOL       0.000000
     33 H11         -4.3200    31.7100   -31.3200 h1         1 MOL       0.000000
@<TRIPOS>BOND
     1    13    26 1   
     2    13    14 ar  
     3    12    13 ar  
     4    14    15 ar  
     5    12    25 1   
     6    11    12 ar  
     7    17    28 1   
     8    15    17 1   
     9    15    16 ar  
    10    17    18 1   
    11     8     9 2   
    12    11    16 ar  
    13    10    11 1   
    14    29    33 1   
    15    16    27 1   
    16    18    32 1   
    17    18    19 2   
    18    29    32 1   
    19    29    30 1   
    20     8    10 1   
    21     4     8 1   
    22    29    31 1   
    23    10    24 1   
    24     3    20 1   
    25     3     4 ar  
    26     4     5 ar  
    27     2     3 ar  
    28     5     7 1   
    29     5     6 ar  
    30     2    22 1   
    31     1     2 ar  
    32     1     6 ar  
    33     6    23 1   
    34     1    21 1   
@<TRIPOS>SUBSTRUCTURE
     1 MOL         1 TEMP              0 ****  ****    0 ROOT
